Version 4
SHEET 1 1084 680
WIRE 128 16 -208 16
WIRE 368 16 128 16
WIRE 784 16 368 16
WIRE 128 48 128 16
WIRE 368 48 368 16
WIRE 784 48 784 16
WIRE 208 64 176 64
WIRE 320 64 208 64
WIRE 736 64 576 64
WIRE 128 96 128 64
WIRE 368 96 368 64
WIRE 784 96 784 64
WIRE 128 160 128 144
WIRE 208 160 208 64
WIRE 208 160 128 160
WIRE 368 192 368 144
WIRE 576 192 576 64
WIRE 576 192 368 192
WIRE 128 240 128 160
WIRE 368 240 368 192
WIRE 784 272 784 144
WIRE 1024 272 784 272
WIRE 80 320 48 320
WIRE 128 320 128 288
WIRE 368 320 368 288
WIRE 448 320 416 320
WIRE 128 352 128 336
WIRE 256 352 128 352
WIRE 368 352 368 336
WIRE 368 352 256 352
WIRE -304 384 -304 240
WIRE -240 384 -304 384
WIRE -304 400 -304 384
WIRE 256 400 256 352
WIRE 784 400 784 272
WIRE -304 480 -304 448
WIRE -240 480 -240 384
WIRE -240 480 -256 480
WIRE 192 480 -240 480
WIRE 208 480 192 480
WIRE 256 480 256 448
WIRE 784 480 784 448
WIRE 192 528 192 480
WIRE 736 528 736 480
WIRE 736 528 192 528
WIRE -304 592 -304 496
WIRE 256 592 256 496
WIRE 256 592 -304 592
WIRE 784 592 784 496
WIRE 784 592 256 592
WIRE 1024 592 784 592
FLAG -208 16 VDD
IOPIN -208 16 In
FLAG 48 320 Vin
IOPIN 48 320 In
FLAG 448 320 Vip
IOPIN 448 320 In
FLAG 1024 272 Vout
IOPIN 1024 272 Out
FLAG -304 240 CURR
IOPIN -304 240 In
FLAG 1024 592 VSS
IOPIN 1024 592 In
SYMBOL nmos4 -256 400 M0
SYMATTR InstName M00
SYMATTR Value2 l=1 w=4
SYMBOL pmos4 176 144 R180
SYMATTR InstName M3
SYMATTR Value2 l=1 w=64
SYMBOL pmos4 320 144 M180
SYMATTR InstName M4
SYMATTR Value2 l=1 w=64
SYMBOL nmos4 208 400 R0
SYMATTR InstName M0
SYMATTR Value2 l=1 w=32
SYMBOL nmos4 80 240 R0
SYMATTR InstName M1
SYMATTR Value2 l=1 w=16
SYMBOL nmos4 416 240 M0
SYMATTR InstName M2
SYMATTR Value2 l=1 w=16
SYMBOL nmos4 736 400 R0
SYMATTR InstName M6
SYMATTR Value2 l=1 w=160
SYMBOL pmos4 736 144 M180
SYMATTR InstName M5
SYMATTR Value2 l=1 w=640
TEXT -856 208 Left 2 !.model nmos nmos(level = 1 kp=400u vt0=0.5 lambda=0.05)
TEXT -856 232 Left 2 !.model pmos pmos(level = 1 kp=100u vt0=-0.5 lambda=0.05)
TEXT -352 624 Left 2 ;Current Mirror for Biasing
TEXT 144 624 Left 2 ;Current Mirror loaded Differential Pair
TEXT 736 624 Left 2 ;Common Source Amplifier
RECTANGLE Normal -176 656 -384 176 2
RECTANGLE Normal 528 656 -16 -16 2
RECTANGLE Normal 960 656 672 -16 2
