Version 4
SHEET 1 880 680
WIRE 400 -16 352 -16
WIRE 400 16 352 16
WIRE 560 16 544 16
WIRE 624 16 560 16
WIRE 688 16 624 16
WIRE 400 48 384 48
WIRE 384 64 384 48
WIRE 384 64 368 64
WIRE 384 112 384 64
WIRE 432 112 384 112
WIRE 560 112 560 16
WIRE 560 112 512 112
FLAG -64 96 0
FLAG 16 96 0
FLAG -64 16 Vdd
FLAG 352 -16 Vdd
FLAG 16 16 Vin+
FLAG 352 16 Vin+
FLAG 624 16 Out
FLAG 160 96 0
FLAG 160 16 Vin-
FLAG 288 64 Vin-
SYMBOL 2stageopampdesign_v02 464 16 R0
SYMATTR InstName X1
SYMBOL voltage -64 0 R0
WINDOW 123 0 0 Left 0
WINDOW 39 0 0 Left 0
SYMATTR InstName V1
SYMATTR Value 5
SYMBOL voltage 16 0 R0
WINDOW 3 24 30 Left 2
WINDOW 123 0 0 Left 0
WINDOW 39 0 0 Left 0
SYMATTR InstName V2
SYMATTR Value 2.5
SYMBOL voltage 160 0 R0
WINDOW 123 0 0 Left 0
WINDOW 39 0 0 Left 0
SYMATTR InstName V3
SYMATTR Value SINE(2.5 0.2 1)
SYMBOL res 272 80 R270
WINDOW 0 32 56 VTop 2
WINDOW 3 0 56 VBottom 2
SYMATTR InstName R1
SYMATTR Value 1k
SYMBOL res 528 96 R90
WINDOW 0 0 56 VBottom 2
WINDOW 3 32 56 VTop 2
SYMATTR InstName R2
SYMATTR Value 4k
TEXT -96 120 Left 2 !.tran 10
