Version 4
SHEET 1 880 680
WIRE 192 -160 192 -176
WIRE 112 -144 64 -144
WIRE -80 -112 -112 -112
WIRE 32 -112 0 -112
WIRE 112 -112 32 -112
WIRE 304 -112 272 -112
WIRE 384 -112 304 -112
WIRE 112 -80 80 -80
WIRE 192 -48 192 -64
WIRE 32 0 32 -112
WIRE 144 0 32 0
WIRE 304 0 304 -112
WIRE 304 0 224 0
FLAG -224 128 0
FLAG -144 128 0
FLAG -224 48 Vdd
FLAG -144 48 Vbias
FLAG 80 -80 Vbias
FLAG 384 -112 Vo
FLAG -48 128 0
FLAG -48 48 Vi
FLAG -112 -112 Vi
FLAG 192 -176 Vdd
FLAG 192 -48 0
FLAG 64 -224 0
SYMBOL voltage -224 32 R0
WINDOW 123 0 0 Left 0
WINDOW 39 0 0 Left 0
WINDOW 0 24 16 Invisible 2
SYMATTR InstName V1
SYMATTR Value 5
SYMBOL voltage -144 32 R0
WINDOW 3 24 30 Left 2
WINDOW 123 0 0 Left 0
WINDOW 39 0 0 Left 0
WINDOW 0 24 16 Invisible 2
SYMATTR Value 2.5
SYMATTR InstName V2
SYMBOL voltage -48 32 R0
WINDOW 123 0 0 Left 0
WINDOW 39 0 0 Left 0
WINDOW 0 24 16 Invisible 2
SYMATTR InstName V3
SYMATTR Value SINE(2.5 0.2 1)
SYMBOL res -96 -96 R270
WINDOW 0 32 56 Invisible 2
WINDOW 3 0 56 VBottom 2
SYMATTR InstName R1
SYMATTR Value 1k
SYMBOL res 240 -16 R90
WINDOW 0 0 56 Invisible 2
WINDOW 3 32 56 VTop 2
SYMATTR InstName R2
SYMATTR Value 10k
SYMBOL 2stage_opamp_design 192 -112 R0
WINDOW 0 0 -88 Invisible 2
SYMATTR InstName X2
SYMBOL current 64 -224 M0
WINDOW 123 0 0 Left 0
WINDOW 39 0 0 Left 0
SYMATTR InstName Ibias
SYMATTR Value 200µ
TEXT -256 152 Left 2 !.tran 10
