Version 4
SHEET 1 880 680
WIRE 64 -176 64 -192
WIRE -16 -160 -96 -160
WIRE -16 -128 -48 -128
WIRE 208 -128 144 -128
WIRE -16 -96 -48 -96
WIRE 64 -64 64 -80
FLAG -272 144 0
FLAG -192 144 0
FLAG -272 64 Vdd
FLAG -192 64 Vin+
FLAG 64 -192 Vdd
FLAG -48 -96 Vin+
FLAG 208 -128 Out
FLAG 64 -64 0
FLAG -96 -240 0
FLAG -352 144 0
FLAG -352 64 Vicm
FLAG -48 -128 Vicm
SYMBOL voltage -272 48 R0
WINDOW 123 0 0 Left 0
WINDOW 39 0 0 Left 0
SYMATTR InstName V1
SYMATTR Value 5
SYMBOL voltage -192 48 R0
WINDOW 3 24 30 Left 2
WINDOW 123 0 0 Left 0
WINDOW 39 0 0 Left 0
SYMATTR Value ""
SYMATTR InstName Ve
SYMBOL 2stage_opamp_design 64 -128 R0
WINDOW 0 0 -88 Invisible 2
SYMATTR InstName X2
SYMBOL current -96 -240 M0
WINDOW 123 0 0 Left 0
WINDOW 39 0 0 Left 0
SYMATTR InstName Ibias1
SYMATTR Value 200µ
SYMBOL voltage -352 48 R0
WINDOW 123 0 0 Left 0
WINDOW 39 0 0 Left 0
SYMATTR InstName V2
SYMATTR Value {Vicm}
TEXT -104 152 Left 2 !.dc Ve {-2.5+Vicm} {Vicm+2.5} 0.001
TEXT -104 128 Left 2 !.param Vicm = 3
