Version 4
SHEET 1 880 680
WIRE 192 32 144 32
WIRE 192 64 144 64
WIRE 368 64 336 64
WIRE 192 96 176 96
FLAG -272 144 0
FLAG -192 144 0
FLAG -272 64 Vdd
FLAG 144 32 Vdd
FLAG -192 64 Vin+
FLAG 144 64 Vin+
FLAG 368 64 Out
FLAG 176 96 0
SYMBOL 2stageopampdesign_v02 256 64 R0
SYMATTR InstName X1
SYMBOL voltage -272 48 R0
WINDOW 123 0 0 Left 0
WINDOW 39 0 0 Left 0
SYMATTR InstName V1
SYMATTR Value 5
SYMBOL voltage -192 48 R0
WINDOW 3 24 30 Left 2
WINDOW 123 0 0 Left 0
WINDOW 39 0 0 Left 0
SYMATTR Value ""
SYMATTR InstName Ve
TEXT -104 152 Left 2 !.dc Ve -2.5 2.5 0.001
