Version 4
SHEET 1 880 680
WIRE 240 144 192 144
WIRE 240 176 192 176
WIRE 400 176 384 176
WIRE 464 176 400 176
WIRE 528 176 464 176
WIRE 240 208 224 208
WIRE 224 272 224 208
WIRE 400 272 400 176
WIRE 400 272 224 272
FLAG -64 256 0
FLAG 16 256 0
FLAG -64 176 Vdd
FLAG 192 144 Vdd
FLAG 16 176 Vin+
FLAG 192 176 Vin+
FLAG 464 176 Out
SYMBOL 2stageopampdesign_v02 304 176 R0
SYMATTR InstName X1
SYMBOL voltage -64 160 R0
WINDOW 123 0 0 Left 0
WINDOW 39 0 0 Left 0
SYMATTR InstName V1
SYMATTR Value 5
SYMBOL voltage 16 160 R0
WINDOW 3 24 30 Left 2
WINDOW 123 0 0 Left 0
WINDOW 39 0 0 Left 0
SYMATTR InstName V2
SYMATTR Value SINE(3 1.5 1)
TEXT -96 280 Left 2 !.tran 10
