Version 4
SHEET 1 880 680
WIRE 320 -16 320 -32
WIRE 240 0 160 0
WIRE 240 32 160 32
WIRE 416 32 400 32
WIRE 464 32 416 32
WIRE 240 64 208 64
WIRE 320 96 320 80
WIRE 160 144 160 32
WIRE 416 144 416 32
WIRE 416 144 160 144
FLAG 32 288 0
FLAG 112 288 0
FLAG 32 208 Vdd
FLAG 320 -32 Vdd
FLAG 112 208 Vin+
FLAG 208 64 Vin+
FLAG 464 32 Out
FLAG 320 96 0
FLAG 160 -80 0
SYMBOL voltage 32 192 R0
WINDOW 123 0 0 Left 0
WINDOW 39 0 0 Left 0
SYMATTR InstName V1
SYMATTR Value 5
SYMBOL voltage 112 192 R0
WINDOW 3 24 30 Left 2
WINDOW 123 0 0 Left 0
WINDOW 39 0 0 Left 0
SYMATTR Value SINE(3 {vp} 1)
SYMATTR InstName V2
SYMBOL 2stage_opamp_design 320 32 R0
WINDOW 0 0 -88 Invisible 2
SYMATTR InstName X2
SYMBOL current 160 -80 M0
WINDOW 123 0 0 Left 0
WINDOW 39 0 0 Left 0
SYMATTR InstName Ibias
SYMATTR Value 200µ
TEXT 0 312 Left 2 !.tran 10
TEXT 232 272 Left 2 !.step param vp 0 3 0.5
